10

C       -0.00897       -0.02895       -0.00131
C        1.33138        0.02699       -0.00084
C        2.15780       -0.02034        1.21162
C        1.88661       -0.78739        2.27824
H       -0.57242       -0.07669        0.92547
H       -0.57737       -0.01481       -0.92487
H        1.85570        0.12847       -0.95021
H        3.05161        0.60212        1.22260
H        1.03599       -1.46187        2.28722
H        2.51370       -0.77175        3.16302