10

C        1.33368       -0.48503        0.38060
C        2.44794       -0.02639        0.09637
C        3.63810       -0.02639        0.09637
C        5.00716        0.20293       -0.04574
H        0.60990        0.90339        0.51803
H        0.60989       -0.85645        0.69076
H        0.60989       -0.12611       -0.91967
H        5.47615       -0.06259        1.11666
H        5.47615        0.87530       -0.38242
H        5.47615       -0.89188       -0.44512