10

C       -0.00857       -0.03740        0.00034
C        1.50285       -0.00561        0.00259
O        2.14700       -0.01858        1.04628
C        2.17890        0.04274       -1.34873
H       -0.40673        0.85040       -0.50096
H       -0.37282       -0.07457        1.02690
H       -0.36995       -0.91049       -0.55207
H        1.85674        0.92922       -1.90402
H        1.89972       -0.83181       -1.94479
H        3.26015        0.06582       -1.21354