9

C       -0.00880        0.18495        0.02020
C        1.49785        0.04122        0.00870
O       -0.66039        0.53429       -0.95978
N       -0.59761       -0.07263        1.23329
H        1.95271        0.63287        0.80758
H        1.78466       -1.00462        0.15500
H        1.86983        0.38119       -0.95642
H       -1.60708       -0.13608        1.23923
H       -0.09923       -0.57151        1.95585