7

C       -0.01008        0.00014        0.00014
C        1.30111        0.00009        0.00030
C        2.61230       -0.00013        0.00018
H       -0.57576       -0.65272        0.65768
H       -0.57505        0.65295       -0.65818
H        3.17760       -0.65800       -0.65272
H        3.17794        0.65741        0.65314