12

C       -0.00066        0.00007       -0.00124
C        1.39455       -0.00003       -0.00101
C        2.09196       -0.00005        1.20739
C        1.39417        0.00026        2.41558
C       -0.00106        0.00032        2.41538
C       -0.69852        0.00029        1.20695
H       -0.54414       -0.00000       -0.94275
H        1.93830       -0.00017       -0.94240
H        3.17910       -0.00027        1.20763
H        1.93760        0.00024        3.35717
H       -0.54470        0.00023        3.35681
H       -1.78563        0.00027        1.20691