14

H       -0.00829       -0.00020       -0.00240
C        1.08529       -0.00467        0.00292
H        1.41564       -0.00033        1.04600
H        1.41917       -0.94411       -0.44773
C        1.65389        1.19192       -0.75167
H        1.28727        1.18415       -1.78561
H        1.28375        2.12156       -0.30198
C        3.17879        1.21525       -0.76292
H        3.54541        1.22302        0.27102
H        3.54892        0.28561       -1.21261
C        3.74738        2.41185       -1.51750
H        3.41704        2.40749       -2.56058
H        3.41349        3.35129       -1.06685
H        4.84096        2.40736       -1.51219