10

C       -0.00261       -0.01937       -0.01679
C        1.46461        0.02554        0.00226
C        2.20477       -0.02769        1.11978
C       -0.74300       -0.78152        0.80210
H       -0.50452        0.60079       -0.75840
H        1.96675        0.12258       -0.95950
H        1.74287       -0.07052        2.10134
H        3.28868       -0.01547        1.08435
H       -1.82691       -0.76423        0.76828
H       -0.28125       -1.45350        1.51897