9

C       -0.61310        0.61303        0.00000
C       -0.22444       -0.83749        0.00000
C        0.83743        0.22436       -0.00000
H       -1.02943        1.02946        0.91047
H       -1.02939        1.02950       -0.91047
H        1.40622        0.37684        0.91046
H        1.40623        0.37678       -0.91046
H       -0.37683       -1.40627       -0.91048
H       -0.37677       -1.40628        0.91048