9

H        0.05018        0.00479        0.01454
C        1.14092        0.02088       -0.01909
H        1.52045        0.03007        1.00532
H        1.48663       -0.88279       -0.52643
S        1.63951        1.50574       -0.91496
C        3.42811        1.28555       -0.82338
H        3.77354        1.27569        0.21301
H        3.73963        0.36296       -1.31869
H        3.89254        2.12938       -1.33653