9

C        0.00877        0.00043       -0.01884
C        1.52909       -0.00577        0.00369
S       -0.70040       -0.02533       -1.69386
H       -0.38780        0.85753        0.53056
H       -0.38372       -0.89874        0.46302
H        1.93195        0.89311       -0.47075
H        1.92080       -0.87424       -0.52949
H        1.89399       -0.03465        1.03493
H       -0.14849        1.12665       -2.10479