9

H        0.03256        1.23041        0.88674
C        0.00321        0.58172        0.00004
H        0.03258        1.23028       -0.88680
O        1.10053       -0.33158       -0.00018
C       -1.26168       -0.24638       -0.00001
H       -1.28999       -0.88407        0.88563
H       -2.14556        0.39705        0.00004
H       -1.29006       -0.88409       -0.88562
H        1.91946        0.19046        0.00017