8

C        0.00845        0.00007       -0.02323
C        1.52253       -0.00002        0.00139
Cl       -0.61496       -0.00105       -1.69980
H       -0.39922       -0.88511        0.46584
H       -0.39912        0.88597        0.46462
H        1.87063        0.00069        1.03855
H        1.91926       -0.88600       -0.49753
H        1.91936        0.88523       -0.49873