14

H        0.00093        0.00870       -0.00259
C        1.09526        0.00161       -0.00384
H        1.43260        0.00530        1.03847
H        1.42734       -0.93565       -0.46087
C        1.65604        1.20971       -0.74785
H        1.29565        1.16855       -1.78450
C        1.15752        2.51019       -0.12512
H        0.06420        2.55738       -0.12569
H        1.49684        2.59035        0.91347
H        1.53442        3.38143       -0.66963
C        3.18092        1.17053       -0.77534
H        3.58186        1.20979        0.24344
H        3.54630        0.25198       -1.24477
H        3.59019        2.02039       -1.33017