7

C        0.01159       -0.00447       -0.00274
N        1.47507       -0.02825       -0.01749
H       -0.35141        0.00415       -1.03264
H       -0.44125        0.84808        0.52440
H       -0.35129       -0.92192        0.46542
H        1.82580       -0.02806        0.93762
H        1.82570        0.82621       -0.44434