12

C       -0.01185        0.00113       -0.01594
C        1.49812       -0.00060        0.06471
H       -0.34179       -0.01245       -1.05824
H       -0.41208        0.89436        0.46740
H       -0.41535       -0.87715        0.49148
O        1.85797        0.01743        1.43690
C        3.26252        0.01715        1.60516
H        3.72359        0.90164        1.14412
H        3.72010       -0.88152        1.16864
H        3.45373        0.03145        2.67858
H        1.91901        0.87857       -0.44823
H        1.91573       -0.89493       -0.42411