8

C        0.01884        0.00054       -0.04337
O        1.22006       -0.00082        0.08608
O       -0.58557       -0.00073       -1.25311
C       -2.02206       -0.00016       -1.21934
H       -0.69280        0.00307        0.80220
H       -2.33651        0.00448       -2.26044
H       -2.40368       -0.89754       -0.72598
H       -2.40307        0.89317       -0.71821