11

C       -0.00001       -0.58084        0.00003
C       -1.26674        0.26742        0.00010
C        1.26675        0.26739       -0.00016
H       -0.00010       -1.23800       -0.87680
H        0.00008       -1.23820        0.87668
H       -1.30340        0.91194       -0.88337
H       -1.30322        0.91174        0.88376
H       -2.16663       -0.35393        0.00025
H        1.30324        0.91191       -0.88363
H        2.16662       -0.35398       -0.00019
H        1.30343        0.91170        0.88349