9

C       -0.00905       -0.00394       -0.00343
C        1.32751        0.00430        0.01191
C        2.16299        0.00137        1.25475
H       -0.56909       -0.00111       -0.93227
H       -0.58711       -0.01335        0.91624
H        1.86560        0.01366       -0.93514
H        1.53438       -0.00827        2.14888
H        2.81836       -0.87513        1.28747
H        2.80763        0.88528        1.29849