11

N       -0.00720        0.00001       -0.01216
C        1.33637        0.00009        0.00857
C        2.09317        0.00015        1.17947
C        1.42933        0.00017        2.40399
C        0.03645        0.00009        2.40230
C       -0.63075       -0.00000        1.17813
H        1.82395        0.00009       -0.96452
H        3.17812        0.00018        1.12796
H        1.98477        0.00021        3.33822
H       -0.52706        0.00008        3.33087
H       -1.71856       -0.00009        1.14172