10

N        0.01865       -0.00018        0.02605
C        1.39014        0.00016        0.01003
C        1.81867        0.00021        1.32330
C        0.66654       -0.00013        2.14806
C       -0.43855       -0.00041        1.31920
H       -0.56968       -0.00017       -0.79571
H        1.93992        0.00050       -0.92043
H        2.85017        0.00057        1.64881
H        0.64237       -0.00019        3.22944
H       -1.49656       -0.00054        1.53968