13

C        0.01871       -0.11425        0.20395
C        1.49954       -0.10726        0.20529
C        0.76610        0.13835       -3.32869
C        0.75008        1.44608       -3.04576
C        0.76433       -1.02145       -0.73516
H       -0.52286        0.71117       -0.24829
H       -0.53059       -0.61693        0.99712
H        2.05205       -0.60488        0.99935
H        2.03428        0.72320       -0.24591
H        1.69381       -0.40865       -3.45266
H       -0.14788       -0.42898       -3.46233
H       -0.17981        1.99455       -2.93322
H        1.66631        2.01496       -2.92336