14

C          3.58640        1.13600        0.93210
C          2.55940        0.82760        1.99790
C          1.71800        2.04880        2.33360
C          0.69120        1.74040        3.39950
H          3.11360        1.47300        0.00000
H          4.19010        0.25150        0.69220
H          4.27690        1.92800        1.25140
H          3.06250        0.45520        2.91240
H          1.90300        0.00000        1.66310
H          1.21480        2.42070        1.41900
H          2.37470        2.87660        2.66780
H          0.00000        0.94950        3.07910
H          0.08800        2.62500        3.64040
H          1.16350        1.40170        4.33130
