13

N       -0.00207       -0.00516        0.00298
C        1.45121       -0.00514        0.00278
C       -0.50981       -0.00513       -1.35872
C       -0.50957        1.14381        0.73396
H        1.87967        0.88844       -0.48785
H        1.81623       -0.89254       -0.52094
H        1.81640       -0.03963        1.03256
H       -0.19957        2.10680        0.28747
H       -0.14623        1.11049        1.76443
H       -1.60204        1.11050        0.75369
H       -0.19985        0.88845       -1.93162
H       -1.60228       -0.03959       -1.34098
H       -0.14668       -0.89252       -1.88379